700
generated by MOF_BUILD
O      21.971  -0.046  16.428
O      19.618  -0.117  14.044
O      14.031  -0.047  16.426
O      16.385  -0.118  14.044
O      18.000   1.142  16.199
O      18.001  -1.247  16.270
O      21.970   0.047  19.574
O      19.617   0.118  21.956
O      14.030   0.046  19.573
O      16.384   0.117  21.956
O      18.000  -1.142  19.801
O      17.999   1.247  19.730
O      19.800  -1.229  18.037
O      16.200   1.229  17.963
O      19.799   1.230  17.963
O      16.201  -1.230  18.037
Zr     19.764  -0.052  16.241
D      19.956   0.494  16.032
D      19.956  -0.610  16.064
D      20.371  -0.050  16.292
D      19.724  -0.070  15.637
D      19.280   0.276  16.229
D      19.279  -0.381  16.249
D      19.774  -0.376  16.734
D      19.774   0.300  16.714
Zr     16.236  -0.052  16.241
D      16.089  -0.482  16.105
D      16.089   0.368  16.080
D      15.770  -0.051  16.280
D      16.268  -0.066  15.776
D      16.609   0.200  16.232
D      16.610  -0.305  16.247
D      16.229   0.218  16.605
D      16.229  -0.301  16.620
Zr     19.764   0.052  19.759
D      19.886  -0.299  19.893
D      19.886   0.410  19.872
D      20.152   0.051  19.727
D      19.738   0.064  20.147
D      19.453  -0.158  19.767
D      19.452   0.263  19.755
D      19.770  -0.174  19.456
D      19.770   0.260  19.442
Zr     16.236   0.052  19.759
D      16.088   0.482  19.895
D      16.088  -0.369  19.920
D      15.769   0.051  19.720
D      16.267   0.066  20.224
D      16.609  -0.201  19.768
D      16.609   0.304  19.753
D      16.228   0.301  19.379
D      16.228  -0.220  19.395
Zr     18.000  -2.457  18.073
D      17.790  -2.641  17.865
D      18.211  -2.642  17.865
D      18.000  -2.267  17.788
D      18.210  -2.629  18.291
D      17.790  -2.629  18.291
D      18.000  -2.249  18.346
D      18.284  -2.264  18.067
D      17.716  -2.264  18.067
Zr     18.000   2.457  17.927
D      18.380   2.768  17.532
D      17.619   2.767  17.532
D      18.000   2.083  17.435
D      17.619   2.791  18.303
D      18.380   2.790  18.303
D      18.000   2.113  18.441
D      17.486   2.107  17.937
D      18.513   2.107  17.938
O      21.971  32.153  32.527
O      19.618  32.083  30.144
O      14.031  32.152  32.526
O      16.385  32.081  30.143
O      18.000  33.341  32.298
O      18.001  30.952  32.369
O      21.970  32.246  35.674
O      19.617  32.318  38.056
O      14.030  32.246  35.673
O      16.384  32.317  38.056
O      18.000  31.057  35.901
O      17.999  33.447  35.830
O      19.800  30.970  34.137
O      16.200  33.429  34.063
O      19.799  33.430  34.063
O      16.201  30.969  34.136
Zr     19.764  32.147  32.340
D      19.956  32.694  32.131
D      19.956  31.589  32.164
D      20.371  32.149  32.391
D      19.724  32.130  31.736
D      19.280  32.475  32.329
D      19.279  31.818  32.349
D      19.774  31.824  32.834
D      19.774  32.500  32.814
Zr     16.236  32.147  32.340
D      16.089  31.718  32.205
D      16.089  32.568  32.179
D      15.770  32.148  32.379
D      16.268  32.133  31.876
D      16.609  32.400  32.332
D      16.610  31.894  32.347
D      16.229  32.418  32.704
D      16.229  31.898  32.720
Zr     19.764  32.252  35.859
D      19.886  31.901  35.993
D      19.886  32.610  35.972
D      20.152  32.251  35.826
D      19.738  32.264  36.247
D      19.453  32.041  35.867
D      19.452  32.462  35.855
D      19.770  32.025  35.555
D      19.770  32.460  35.542
Zr     16.236  32.252  35.859
D      16.088  32.681  35.994
D      16.088  31.831  36.020
D      15.769  32.250  35.820
D      16.267  32.266  36.324
D      16.609  31.998  35.868
D      16.609  32.504  35.853
D      16.228  32.501  35.479
D      16.228  31.980  35.494
Zr     18.000  29.742  34.172
D      17.790  29.558  33.964
D      18.211  29.558  33.965
D      18.000  29.932  33.888
D      18.210  29.570  34.391
D      17.790  29.571  34.391
D      18.000  29.950  34.445
D      18.284  29.936  34.167
D      17.716  29.935  34.167
Zr     18.000  34.657  34.027
D      18.380  34.968  33.632
D      17.619  34.967  33.632
D      18.000  34.282  33.534
D      17.619  34.990  34.403
D      18.380  34.990  34.403
D      18.000  34.312  34.541
D      17.486  34.307  34.037
D      18.513  34.307  34.038
O       3.971  -0.046  16.428
O       1.618  -0.117  14.044
O      -3.969  -0.047  16.426
O      -1.615  -0.118  14.044
O       0.000   1.142  16.199
O       0.001  -1.247  16.270
O       3.970   0.047  19.574
O       1.617   0.118  21.956
O      -3.970   0.046  19.573
O      -1.616   0.117  21.956
O      -0.000  -1.142  19.801
O      -0.001   1.247  19.730
O       1.800  -1.229  18.037
O      -1.800   1.229  17.963
O       1.799   1.230  17.963
O      -1.799  -1.230  18.037
Zr      1.764  -0.052  16.241
D       1.956   0.494  16.032
D       1.956  -0.610  16.064
D       2.371  -0.050  16.292
D       1.724  -0.070  15.637
D       1.280   0.276  16.229
D       1.279  -0.381  16.249
D       1.774  -0.376  16.734
D       1.774   0.300  16.714
Zr     -1.764  -0.052  16.241
D      -1.911  -0.482  16.105
D      -1.911   0.368  16.080
D      -2.230  -0.051  16.280
D      -1.732  -0.066  15.776
D      -1.391   0.200  16.232
D      -1.390  -0.305  16.247
D      -1.771   0.218  16.605
D      -1.771  -0.301  16.620
Zr      1.764   0.052  19.759
D       1.886  -0.299  19.893
D       1.886   0.410  19.872
D       2.152   0.051  19.727
D       1.738   0.064  20.147
D       1.453  -0.158  19.767
D       1.452   0.263  19.755
D       1.770  -0.174  19.456
D       1.770   0.260  19.442
Zr     -1.764   0.052  19.759
D      -1.912   0.482  19.895
D      -1.912  -0.369  19.920
D      -2.231   0.051  19.720
D      -1.733   0.066  20.224
D      -1.391  -0.201  19.768
D      -1.391   0.304  19.753
D      -1.772   0.301  19.379
D      -1.772  -0.220  19.395
Zr      0.000  -2.457  18.073
D      -0.210  -2.641  17.865
D       0.211  -2.642  17.865
D       0.000  -2.267  17.788
D       0.210  -2.629  18.291
D      -0.210  -2.629  18.291
D       0.000  -2.249  18.346
D       0.284  -2.264  18.067
D      -0.284  -2.264  18.067
Zr     -0.000   2.457  17.927
D       0.380   2.768  17.532
D      -0.381   2.767  17.532
D      -0.000   2.083  17.435
D      -0.381   2.791  18.303
D       0.380   2.790  18.303
D      -0.000   2.113  18.441
D      -0.514   2.107  17.937
D       0.513   2.107  17.938
O       3.971  32.153  32.527
O       1.618  32.083  30.144
O      -3.969  32.152  32.526
O      -1.615  32.081  30.143
O       0.000  33.341  32.298
O       0.001  30.952  32.369
O       3.970  32.246  35.674
O       1.617  32.318  38.056
O      -3.970  32.246  35.673
O      -1.616  32.317  38.056
O      -0.000  31.057  35.901
O      -0.001  33.447  35.830
O       1.800  30.970  34.137
O      -1.800  33.429  34.063
O       1.799  33.430  34.063
O      -1.799  30.969  34.136
Zr      1.764  32.147  32.340
D       1.956  32.694  32.131
D       1.956  31.589  32.164
D       2.371  32.149  32.391
D       1.724  32.130  31.736
D       1.280  32.475  32.329
D       1.279  31.818  32.349
D       1.774  31.824  32.834
D       1.774  32.500  32.814
Zr     -1.764  32.147  32.340
D      -1.911  31.718  32.205
D      -1.911  32.568  32.179
D      -2.230  32.148  32.379
D      -1.732  32.133  31.876
D      -1.391  32.400  32.332
D      -1.390  31.894  32.347
D      -1.771  32.418  32.704
D      -1.771  31.898  32.720
Zr      1.764  32.252  35.859
D       1.886  31.901  35.993
D       1.886  32.610  35.972
D       2.152  32.251  35.826
D       1.738  32.264  36.247
D       1.453  32.041  35.867
D       1.452  32.462  35.855
D       1.770  32.025  35.555
D       1.770  32.460  35.542
Zr     -1.764  32.252  35.859
D      -1.912  32.681  35.994
D      -1.912  31.831  36.020
D      -2.231  32.250  35.820
D      -1.733  32.266  36.324
D      -1.391  31.998  35.868
D      -1.391  32.504  35.853
D      -1.772  32.501  35.479
D      -1.772  31.980  35.494
Zr      0.000  29.742  34.172
D      -0.210  29.558  33.964
D       0.211  29.558  33.965
D       0.000  29.932  33.888
D       0.210  29.570  34.391
D      -0.210  29.571  34.391
D       0.000  29.950  34.445
D       0.284  29.936  34.167
D      -0.284  29.935  34.167
Zr     -0.000  34.657  34.027
D       0.380  34.968  33.632
D      -0.381  34.967  33.632
D      -0.000  34.282  33.534
D      -0.381  34.990  34.403
D       0.380  34.990  34.403
D      -0.000  34.312  34.541
D      -0.514  34.307  34.037
D       0.513  34.307  34.038
O      21.971  14.761  26.876
O      19.618  12.732  28.129
O      14.031  14.760  26.878
O      16.385  12.732  28.130
O      18.000  13.969  25.961
O      18.001  15.225  27.995
O      21.970  17.439  25.222
O      19.617  19.467  23.969
O      14.030  17.439  25.223
O      16.384  19.467  23.970
O      18.000  18.231  26.138
O      17.999  16.975  24.105
O      19.800  16.746  27.096
O      16.200  15.453  25.004
O      19.799  15.453  25.003
O      16.201  16.747  27.097
Zr     19.764  14.602  26.975
D      19.956  14.148  26.606
D      19.956  14.729  27.546
D      20.371  14.645  26.947
D      19.724  14.088  27.292
D      19.280  14.428  26.696
D      19.279  14.774  27.255
D      19.774  15.191  27.008
D      19.774  14.836  26.432
Zr     16.236  14.602  26.975
D      16.089  14.699  27.414
D      16.089  14.253  26.691
D      15.770  14.635  26.954
D      16.268  14.207  27.219
D      16.609  14.468  26.760
D      16.610  14.734  27.191
D      16.229  14.782  26.558
D      16.229  15.055  27.000
Zr     19.764  17.597  25.125
D      19.886  17.889  25.362
D      19.886  17.516  24.758
D      20.152  17.569  25.142
D      19.738  17.927  24.921
D      19.453  17.709  25.303
D      19.452  17.488  24.945
D      19.770  17.447  25.473
D      19.770  17.219  25.103
Zr     16.236  17.597  25.125
D      16.088  17.499  24.685
D      16.088  17.947  25.409
D      15.769  17.564  25.146
D      16.267  17.993  24.880
D      16.609  17.731  25.340
D      16.609  17.466  24.910
D      16.228  17.144  25.099
D      16.228  17.417  25.543
Zr     18.000  17.391  28.142
D      17.790  17.303  28.405
D      18.211  17.304  28.405
D      18.000  17.050  28.119
D      18.210  17.667  28.181
D      17.790  17.666  28.181
D      18.000  17.524  27.825
D      18.284  17.290  27.977
D      17.716  17.290  27.977
Zr     18.000  14.808  23.958
D      18.380  14.311  23.886
D      17.619  14.311  23.887
D      18.000  14.569  24.529
D      17.619  14.967  23.481
D      18.380  14.967  23.482
D      18.000  15.425  24.000
D      17.486  14.992  24.256
D      18.513  14.992  24.256
O       3.971  14.761  26.876
O       1.618  12.732  28.129
O      -3.969  14.760  26.878
O      -1.615  12.732  28.130
O       0.000  13.969  25.961
O       0.001  15.225  27.995
O       3.970  17.439  25.222
O       1.617  19.467  23.969
O      -3.970  17.439  25.223
O      -1.616  19.467  23.970
O      -0.000  18.231  26.138
O      -0.001  16.975  24.105
O       1.800  16.746  27.096
O      -1.800  15.453  25.004
O       1.799  15.453  25.003
O      -1.799  16.747  27.097
Zr      1.764  14.602  26.975
D       1.956  14.148  26.606
D       1.956  14.729  27.546
D       2.371  14.645  26.947
D       1.724  14.088  27.292
D       1.280  14.428  26.696
D       1.279  14.774  27.255
D       1.774  15.191  27.008
D       1.774  14.836  26.432
Zr     -1.764  14.602  26.975
D      -1.911  14.699  27.414
D      -1.911  14.253  26.691
D      -2.230  14.635  26.954
D      -1.732  14.207  27.219
D      -1.391  14.468  26.760
D      -1.390  14.734  27.191
D      -1.771  14.782  26.558
D      -1.771  15.055  27.000
Zr      1.764  17.597  25.125
D       1.886  17.889  25.362
D       1.886  17.516  24.758
D       2.152  17.569  25.142
D       1.738  17.927  24.921
D       1.453  17.709  25.303
D       1.452  17.488  24.945
D       1.770  17.447  25.473
D       1.770  17.219  25.103
Zr     -1.764  17.597  25.125
D      -1.912  17.499  24.685
D      -1.912  17.947  25.409
D      -2.231  17.564  25.146
D      -1.733  17.993  24.880
D      -1.391  17.731  25.340
D      -1.391  17.466  24.910
D      -1.772  17.144  25.099
D      -1.772  17.417  25.543
Zr      0.000  17.391  28.142
D      -0.210  17.303  28.405
D       0.211  17.304  28.405
D       0.000  17.050  28.119
D       0.210  17.667  28.181
D      -0.210  17.666  28.181
D       0.000  17.524  27.825
D       0.284  17.290  27.977
D      -0.284  17.290  27.977
Zr     -0.000  14.808  23.958
D       0.380  14.311  23.886
D      -0.381  14.311  23.887
D      -0.000  14.569  24.529
D      -0.381  14.967  23.481
D       0.380  14.967  23.482
D      -0.000  15.425  24.000
D      -0.514  14.992  24.256
D       0.513  14.992  24.256
O      21.971  14.715   7.304
O      19.618  12.616   6.173
O      14.031  14.713   7.304
O      16.385  12.614   6.174
O      18.000  15.111   6.160
O      18.001  13.978   8.265
O      21.970  17.486   8.796
O      19.617  19.585   9.925
O      14.030  17.485   8.796
O      16.384  19.585   9.926
O      18.000  17.089   9.940
O      17.999  18.222   7.835
O      19.800  15.517   9.133
O      16.200  16.682   6.967
O      19.799  16.683   6.966
O      16.201  15.516   9.134
Zr     19.764  14.550   7.215
D      19.956  14.642   6.637
D      19.956  14.118   7.610
D      20.371  14.595   7.239
D      19.724  14.018   6.929
D      19.280  14.704   6.926
D      19.279  14.393   7.504
D      19.774  14.816   7.742
D      19.774  15.137   7.147
Zr     16.236  14.550   7.215
D      16.089  14.218   7.519
D      16.089  14.621   6.771
D      15.770  14.584   7.234
D      16.268  14.141   6.995
D      16.609  14.669   6.992
D      16.610  14.429   7.438
D      16.229  15.000   7.163
D      16.229  14.754   7.621
Zr     19.764  17.650   8.884
D      19.886  17.590   9.255
D      19.886  17.926   8.631
D      20.152  17.621   8.869
D      19.738  17.991   9.068
D      19.453  17.551   9.070
D      19.452  17.751   8.700
D      19.770  17.273   8.929
D      19.770  17.479   8.546
Zr     16.236  17.650   8.884
D      16.088  17.981   8.580
D      16.088  17.578   9.329
D      15.769  17.615   8.866
D      16.267  18.059   9.104
D      16.609  17.530   9.108
D      16.609  17.770   8.663
D      16.228  17.445   8.479
D      16.228  17.198   8.937
Zr     18.000  14.934  10.214
D      17.790  14.662  10.270
D      18.211  14.662  10.270
D      18.000  14.783   9.907
D      18.210  15.038  10.473
D      17.790  15.038  10.472
D      18.000  15.274  10.171
D      18.284  15.026  10.044
D      17.716  15.026  10.044
Zr     18.000  17.265   5.885
D      18.380  17.079   5.419
D      17.619  17.078   5.419
D      18.000  16.651   5.963
D      17.619  17.758   5.785
D      18.380  17.758   5.785
D      18.000  17.538   6.441
D      17.486  17.099   6.193
D      18.513  17.100   6.194
O      21.971  14.715  43.304
O      19.618  12.616  42.173
O      14.031  14.713  43.304
O      16.385  12.614  42.174
O      18.000  15.111  42.160
O      18.001  13.978  44.265
O      21.970  17.486  44.796
O      19.617  19.585  45.925
O      14.030  17.485  44.796
O      16.384  19.585  45.926
O      18.000  17.089  45.940
O      17.999  18.222  43.835
O      19.800  15.517  45.133
O      16.200  16.682  42.967
O      19.799  16.683  42.966
O      16.201  15.516  45.134
Zr     19.764  14.550  43.215
D      19.956  14.642  42.637
D      19.956  14.118  43.610
D      20.371  14.595  43.239
D      19.724  14.018  42.929
D      19.280  14.704  42.926
D      19.279  14.393  43.504
D      19.774  14.816  43.742
D      19.774  15.137  43.147
Zr     16.236  14.550  43.215
D      16.089  14.218  43.519
D      16.089  14.621  42.771
D      15.770  14.584  43.234
D      16.268  14.141  42.995
D      16.609  14.669  42.992
D      16.610  14.429  43.438
D      16.229  15.000  43.163
D      16.229  14.754  43.621
Zr     19.764  17.650  44.884
D      19.886  17.590  45.255
D      19.886  17.926  44.631
D      20.152  17.621  44.869
D      19.738  17.991  45.068
D      19.453  17.551  45.070
D      19.452  17.751  44.700
D      19.770  17.273  44.929
D      19.770  17.479  44.546
Zr     16.236  17.650  44.884
D      16.088  17.981  44.580
D      16.088  17.578  45.329
D      15.769  17.615  44.866
D      16.267  18.059  45.104
D      16.609  17.530  45.108
D      16.609  17.770  44.663
D      16.228  17.445  44.479
D      16.228  17.198  44.937
Zr     18.000  14.934  46.214
D      17.790  14.662  46.270
D      18.211  14.662  46.270
D      18.000  14.783  45.907
D      18.210  15.038  46.473
D      17.790  15.038  46.472
D      18.000  15.274  46.171
D      18.284  15.026  46.044
D      17.716  15.026  46.044
Zr     18.000  17.265  41.885
D      18.380  17.079  41.419
D      17.619  17.078  41.419
D      18.000  16.651  41.963
D      17.619  17.758  41.785
D      18.380  17.758  41.785
D      18.000  17.538  42.441
D      17.486  17.099  42.193
D      18.513  17.100  42.194
O       3.971  14.715   7.304
O       1.618  12.616   6.173
O      -3.969  14.713   7.304
O      -1.615  12.614   6.174
O       0.000  15.111   6.160
O       0.001  13.978   8.265
O       3.970  17.486   8.796
O       1.617  19.585   9.925
O      -3.970  17.485   8.796
O      -1.616  19.585   9.926
O      -0.000  17.089   9.940
O      -0.001  18.222   7.835
O       1.800  15.517   9.133
O      -1.800  16.682   6.967
O       1.799  16.683   6.966
O      -1.799  15.516   9.134
Zr      1.764  14.550   7.215
D       1.956  14.642   6.637
D       1.956  14.118   7.610
D       2.371  14.595   7.239
D       1.724  14.018   6.929
D       1.280  14.704   6.926
D       1.279  14.393   7.504
D       1.774  14.816   7.742
D       1.774  15.137   7.147
Zr     -1.764  14.550   7.215
D      -1.911  14.218   7.519
D      -1.911  14.621   6.771
D      -2.230  14.584   7.234
D      -1.732  14.141   6.995
D      -1.391  14.669   6.992
D      -1.390  14.429   7.438
D      -1.771  15.000   7.163
D      -1.771  14.754   7.621
Zr      1.764  17.650   8.884
D       1.886  17.590   9.255
D       1.886  17.926   8.631
D       2.152  17.621   8.869
D       1.738  17.991   9.068
D       1.453  17.551   9.070
D       1.452  17.751   8.700
D       1.770  17.273   8.929
D       1.770  17.479   8.546
Zr     -1.764  17.650   8.884
D      -1.912  17.981   8.580
D      -1.912  17.578   9.329
D      -2.231  17.615   8.866
D      -1.733  18.059   9.104
D      -1.391  17.530   9.108
D      -1.391  17.770   8.663
D      -1.772  17.445   8.479
D      -1.772  17.198   8.937
Zr      0.000  14.934  10.214
D      -0.210  14.662  10.270
D       0.211  14.662  10.270
D       0.000  14.783   9.907
D       0.210  15.038  10.473
D      -0.210  15.038  10.472
D       0.000  15.274  10.171
D       0.284  15.026  10.044
D      -0.284  15.026  10.044
Zr     -0.000  17.265   5.885
D       0.380  17.079   5.419
D      -0.381  17.078   5.419
D      -0.000  16.651   5.963
D      -0.381  17.758   5.785
D       0.380  17.758   5.785
D      -0.000  17.538   6.441
D      -0.514  17.099   6.193
D       0.513  17.100   6.194
O       3.971  14.715  43.304
O       1.618  12.616  42.173
O      -3.969  14.713  43.304
O      -1.615  12.614  42.174
O       0.000  15.111  42.160
O       0.001  13.978  44.265
O       3.970  17.486  44.796
O       1.617  19.585  45.925
O      -3.970  17.485  44.796
O      -1.616  19.585  45.926
O      -0.000  17.089  45.940
O      -0.001  18.222  43.835
O       1.800  15.517  45.133
O      -1.800  16.682  42.967
O       1.799  16.683  42.966
O      -1.799  15.516  45.134
Zr      1.764  14.550  43.215
D       1.956  14.642  42.637
D       1.956  14.118  43.610
D       2.371  14.595  43.239
D       1.724  14.018  42.929
D       1.280  14.704  42.926
D       1.279  14.393  43.504
D       1.774  14.816  43.742
D       1.774  15.137  43.147
Zr     -1.764  14.550  43.215
D      -1.911  14.218  43.519
D      -1.911  14.621  42.771
D      -2.230  14.584  43.234
D      -1.732  14.141  42.995
D      -1.391  14.669  42.992
D      -1.390  14.429  43.438
D      -1.771  15.000  43.163
D      -1.771  14.754  43.621
Zr      1.764  17.650  44.884
D       1.886  17.590  45.255
D       1.886  17.926  44.631
D       2.152  17.621  44.869
D       1.738  17.991  45.068
D       1.453  17.551  45.070
D       1.452  17.751  44.700
D       1.770  17.273  44.929
D       1.770  17.479  44.546
Zr     -1.764  17.650  44.884
D      -1.912  17.981  44.580
D      -1.912  17.578  45.329
D      -2.231  17.615  44.866
D      -1.733  18.059  45.104
D      -1.391  17.530  45.108
D      -1.391  17.770  44.663
D      -1.772  17.445  44.479
D      -1.772  17.198  44.937
Zr      0.000  14.934  46.214
D      -0.210  14.662  46.270
D       0.211  14.662  46.270
D       0.000  14.783  45.907
D       0.210  15.038  46.473
D      -0.210  15.038  46.472
D       0.000  15.274  46.171
D       0.284  15.026  46.044
D      -0.284  15.026  46.044
Zr     -0.000  17.265  41.885
D       0.380  17.079  41.419
D      -0.381  17.078  41.419
D      -0.000  16.651  41.963
D      -0.381  17.758  41.785
D       0.380  17.758  41.785
D      -0.000  17.538  42.441
D      -0.514  17.099  42.193
D       0.513  17.100  42.194
