510
generated by MOF_BUILD
N       7.016   7.970  22.048
C       6.196   8.945  22.616
C       6.198   6.926  21.607
C       4.836   8.447  22.573
C       4.838   7.257  21.979
N       9.099   9.743  23.000
C       7.980  10.546  23.254
C      10.204  10.557  23.277
C       9.747  11.870  23.669
C       8.419  11.864  23.646
N      11.212   7.919  22.159
C      12.004   8.898  22.759
C      12.005   6.853  21.738
C      13.270   8.382  22.826
C      13.272   7.111  22.192
N       9.104   6.147  21.203
C       7.987   5.460  20.712
C      10.209   5.439  20.719
C       9.756   4.336  19.905
C       8.428   4.355  19.894
C       6.569  10.143  23.156
C       6.574   5.777  20.974
C      11.514   5.733  20.965
C      11.508  10.188  23.191
C       3.611   2.846  19.745
C       4.206   2.777  21.023
C       5.164   3.734  21.425
C       5.544   4.781  20.553
C       4.949   4.850  19.274
C       3.991   3.892  18.875
C       3.598  12.878  24.761
C       4.177  11.881  25.577
C       5.136  10.988  25.052
C       5.536  11.074  23.699
C       4.958  12.072  22.881
C       3.996  12.962  23.409
C      14.475  13.122  24.310
C      14.067  12.990  22.963
C      13.109  12.023  22.593
C      12.550  11.171  23.568
C      12.948  11.301  24.916
C      13.907  12.271  25.282
C      14.487   3.076  19.298
C      14.032   4.197  18.565
C      13.073   5.074  19.113
C      12.558   4.842  20.406
C      13.002   3.722  21.140
C      13.962   2.847  20.589
O       2.103   1.899  18.161
C       2.590   1.822  19.313
O      15.897  14.201  25.889
C      15.499  14.157  24.702
O      15.927  14.946  23.826
O      15.993   1.234  19.428
C      15.512   2.141  18.709
O      15.857   2.297  17.514
O       2.219  13.718  26.516
C       2.575  13.835  25.320
O       2.103  14.723  24.573
CO      9.119   7.946  22.100
O       2.252   0.921  20.116
H       3.966   8.928  22.989
H       3.968   6.634  21.843
H      10.371  12.716  23.912
H       7.785  12.706  23.871
H      14.117   8.889  23.264
H      14.120   6.459  22.050
H      10.384   3.636  19.374
H       7.797   3.669  19.354
H       3.922   1.980  21.691
H       5.611   3.669  22.406
H       5.241   5.637  18.592
H       3.541   3.951  17.897
H       3.877  11.812  26.612
H       5.571  10.230  25.689
H       5.265  12.159  21.849
H       3.561  13.721  22.779
H      14.494  13.646  22.218
H      12.799  11.933  21.562
H      12.510  10.663  25.667
H      14.209  12.377  26.313
H      14.426   4.370  17.575
H      12.727   5.925  18.543
H      12.598   3.532  22.122
H      14.299   1.984  21.145
N       7.016  16.040  34.992
C       6.196  16.036  36.121
C       6.198  15.899  33.868
C       4.836  15.823  35.668
C       4.838  15.743  34.340
N       9.099  16.102  37.004
C       7.980  16.283  37.826
C      10.204  16.269  37.847
C       9.747  16.586  39.180
C       8.419  16.603  39.164
N      11.212  15.918  35.003
C      12.004  15.888  36.151
C      12.005  15.750  33.870
C      13.270  15.571  35.738
C      13.272  15.485  34.320
N       9.104  15.860  32.991
C       7.987  15.942  32.150
C      10.209  15.925  32.136
C       9.756  16.079  30.774
C       8.428  16.097  30.785
C       6.569  16.167  37.428
C       6.574  15.873  32.556
C      11.514  15.859  32.513
C      11.508  16.159  37.484
C       3.611  15.472  29.403
C       4.206  14.331  29.983
C       5.164  14.461  31.013
C       5.544  15.740  31.483
C       4.949  16.883  30.903
C       3.991  16.749  29.875
C       3.598  16.144  40.599
C       4.177  14.939  40.144
C       5.136  14.947  39.108
C       5.536  16.162  38.506
C       4.958  17.369  38.962
C       3.996  17.357  39.996
C      14.475  16.657  40.585
C      14.067  17.757  39.798
C      13.109  17.594  38.774
C      12.550  16.324  38.524
C      12.948  15.222  39.311
C      13.907  15.390  40.334
C      14.487  15.974  29.379
C      14.032  17.169  29.983
C      13.073  17.134  31.017
C      12.558  15.898  31.462
C      13.002  14.702  30.859
C      13.962  14.742  29.826
O       2.103  16.371  27.791
C       2.590  15.335  28.301
O      15.897  15.829  42.309
C      15.499  16.835  41.678
O      15.927  17.988  41.922
O      15.993  14.940  27.849
C      15.512  16.017  28.274
O      15.857  17.129  27.813
O       2.219  15.044  42.204
C       2.575  16.138  41.708
O       2.103  17.230  42.103
CO      9.119  15.982  34.997
O       2.252  14.189  27.922
H       3.966  15.704  36.292
H       3.968  15.549  33.732
H      10.371  16.799  40.034
H       7.785  16.829  40.005
H      14.117  15.446  36.396
H      14.120  15.283  33.685
H      10.384  16.188  29.902
H       7.797  16.222  29.921
H       3.922  13.353  29.626
H       5.611  13.579  31.446
H       5.241  17.866  31.243
H       3.541  17.625  29.436
H       3.877  14.008  40.601
H       5.571  14.017  38.770
H       5.265  18.307  38.520
H       3.561  18.283  40.339
H      14.494  18.730  39.993
H      12.799  18.443  38.181
H      12.510  14.253  39.134
H      14.209  14.550  40.942
H      14.426  18.114  29.638
H      12.727  18.053  31.469
H      12.598  13.757  31.186
H      14.299  13.828  29.357
N       7.016   8.070  12.944
C       6.196   7.090  13.505
C       6.198   8.973  12.261
C       4.836   7.376  13.094
C       4.838   8.486  12.361
N       9.099   6.359  14.004
C       7.980   5.737  14.572
C      10.204   5.712  14.571
C       9.747   4.716  15.511
C       8.419   4.739  15.517
N      11.212   7.999  12.844
C      12.004   6.990  13.392
C      12.005   8.897  12.132
C      13.270   7.190  12.911
C      13.272   8.374  12.128
N       9.104   9.713  11.788
C       7.987  10.482  11.439
C      10.209  10.486  11.416
C       9.756  11.742  10.869
C       8.428  11.742  10.890
C       6.569   6.024  14.272
C       6.574  10.097  11.582
C      11.514  10.126  11.548
C      11.508   5.971  14.294
C       3.611  12.626   9.658
C       4.206  11.554   8.960
C       5.164  10.727   9.587
C       5.544  10.959  10.930
C       4.949  12.032  11.630
C       3.991  12.856  10.999
C       3.598   3.266  15.838
C       4.177   3.058  14.567
C       5.136   3.959  14.056
C       5.536   5.088  14.807
C       4.958   5.297  16.080
C       3.996   4.395  16.587
C      14.475   3.535  16.275
C      14.067   4.767  16.834
C      13.109   5.572  16.182
C      12.550   5.153  14.956
C      12.948   3.921  14.395
C      13.907   3.119  15.052
C      14.487  12.898  10.080
C      14.032  12.972  11.418
C      13.073  12.060  11.904
C      12.558  11.056  11.056
C      13.002  10.980   9.719
C      13.962  11.895   9.237
O       2.103  14.472   9.630
C       2.590  13.512   8.988
O      15.897   1.628  16.420
C      15.499   2.678  16.976
O      15.927   3.042  18.097
O      15.993  13.707   8.420
C      15.512  13.876   9.566
O      15.857  14.832  10.298
O       2.219   1.326  15.688
C       2.575   2.303  16.387
O       2.103   2.506  17.530
CO      9.119   8.037  12.897
O       2.252  13.267   7.806
H       3.966   6.776  13.303
H       3.968   8.916  11.890
H      10.371   4.083  16.123
H       7.785   4.124  16.134
H      14.117   6.557  13.132
H      14.120   8.823  11.635
H      10.384  12.553  10.527
H       7.797  12.553  10.567
H       3.922  11.374   7.935
H       5.611   9.910   9.040
H       5.241  12.230  12.652
H       3.541  13.674  11.539
H       3.877   2.197  13.989
H       5.571   3.787  13.081
H       5.265   6.148  16.671
H       3.561   4.561  17.560
H      14.494   5.084  17.774
H      12.799   6.509  16.620
H      12.510   3.590  13.467
H      14.209   2.172  14.628
H      14.426  13.743  12.063
H      12.727  12.128  12.926
H      12.598  10.225   9.064
H      14.299  11.845   8.211
N       7.016  24.230  30.052
C       6.196  23.254  29.484
C       6.198  25.273  30.492
C       4.836  23.753  29.526
C       4.838  24.942  30.121
N       9.099  22.456  29.100
C       7.980  21.653  28.846
C      10.204  21.642  28.823
C       9.747  20.330  28.431
C       8.419  20.335  28.453
N      11.212  24.281  29.940
C      12.004  23.302  29.341
C      12.005  25.346  30.362
C      13.270  23.818  29.273
C      13.272  25.088  29.907
N       9.104  26.052  30.896
C       7.987  26.739  31.388
C      10.209  26.761  31.381
C       9.756  27.863  32.194
C       8.428  27.844  32.205
C       6.569  22.057  28.944
C       6.574  26.423  31.126
C      11.514  26.466  31.135
C      11.508  22.012  28.909
C       3.611  29.353  32.355
C       4.206  29.422  31.077
C       5.164  28.465  30.674
C       5.544  27.419  31.546
C       4.949  27.349  32.826
C       3.991  28.307  33.224
C       3.598  19.321  27.339
C       4.177  20.319  26.523
C       5.136  21.211  27.047
C       5.536  21.125  28.401
C       4.958  20.127  29.218
C       3.996  19.237  28.691
C      14.475  19.077  27.790
C      14.067  19.209  29.137
C      13.109  20.177  29.507
C      12.550  21.029  28.532
C      12.948  20.898  27.184
C      13.907  19.928  26.818
C      14.487  29.124  32.801
C      14.032  28.003  33.534
C      13.073  27.125  32.987
C      12.558  27.358  31.694
C      13.002  28.478  30.960
C      13.962  29.353  31.511
O       2.103  30.300  33.939
C       2.590  30.377  32.787
O      15.897  17.999  26.211
C      15.499  18.042  27.398
O      15.927  17.253  28.274
O      15.993  30.966  32.671
C      15.512  30.059  33.391
O      15.857  29.902  34.585
O       2.219  18.481  25.583
C       2.575  18.365  26.779
O       2.103  17.476  27.527
CO      9.119  24.254  29.999
O       2.252  31.278  31.984
H       3.966  23.272  29.111
H       3.968  25.566  30.257
H      10.371  19.483  28.188
H       7.785  19.494  28.229
H      14.117  23.311  28.836
H      14.120  25.740  30.050
H      10.384  28.564  32.725
H       7.797  28.530  32.745
H       3.922  30.220  30.408
H       5.611  28.531  29.694
H       5.241  26.563  33.508
H       3.541  28.248  34.203
H       3.877  20.388  25.488
H       5.571  21.969  26.411
H       5.265  20.041  30.251
H       3.561  18.478  29.321
H      14.494  18.554  29.881
H      12.799  20.266  30.538
H      12.510  21.536  26.433
H      14.209  19.822  25.786
H      14.426  27.829  34.525
H      12.727  26.274  33.557
H      12.598  28.667  29.978
H      14.299  30.216  30.954
N       7.016  16.159  17.108
C       6.196  16.164  15.979
C       6.198  16.300  18.232
C       4.836  16.376  16.432
C       4.838  16.456  17.759
N       9.099  16.098  15.096
C       7.980  15.916  14.274
C      10.204  15.930  14.252
C       9.747  15.614  12.920
C       8.419  15.597  12.936
N      11.212  16.282  17.096
C      12.004  16.311  15.949
C      12.005  16.449  18.230
C      13.270  16.628  16.362
C      13.272  16.714  17.779
N       9.104  16.340  19.109
C       7.987  16.257  19.949
C      10.209  16.274  19.964
C       9.756  16.121  21.326
C       8.428  16.102  21.315
C       6.569  16.033  14.672
C       6.574  16.326  19.544
C      11.514  16.340  19.586
C      11.508  16.040  14.615
C       3.611  16.727  22.696
C       4.206  17.868  22.117
C       5.164  17.738  21.087
C       5.544  16.460  20.617
C       4.949  15.317  21.196
C       3.991  15.451  22.225
C       3.598  16.055  11.501
C       4.177  17.260  11.956
C       5.136  17.252  12.991
C       5.536  16.037  13.593
C       4.958  14.830  13.138
C       3.996  14.842  12.103
C      14.475  15.542  11.515
C      14.067  14.442  12.302
C      13.109  14.605  13.325
C      12.550  15.876  13.575
C      12.948  16.978  12.789
C      13.907  16.810  11.766
C      14.487  16.226  22.721
C      14.032  15.030  22.117
C      13.073  15.065  21.083
C      12.558  16.301  20.638
C      13.002  17.497  21.241
C      13.962  17.457  22.274
O       2.103  15.829  24.309
C       2.590  16.865  23.799
O      15.897  16.371   9.791
C      15.499  15.364  10.422
O      15.927  14.211  10.177
O      15.993  17.259  24.251
C      15.512  16.182  23.825
O      15.857  15.070  24.287
O       2.219  17.155   9.895
C       2.575  16.061  10.392
O       2.103  14.970   9.996
CO      9.119  16.217  17.102
O       2.252  18.011  24.178
H       3.966  16.495  15.808
H       3.968  16.650  18.367
H      10.371  15.400  12.065
H       7.785  15.370  12.095
H      14.117  16.753  15.704
H      14.120  16.917  18.415
H      10.384  16.011  22.198
H       7.797  15.977  22.179
H       3.922  18.846  22.473
H       5.611  18.620  20.653
H       5.241  14.333  20.856
H       3.541  14.574  22.663
H       3.877  18.191  11.499
H       5.571  18.182  13.329
H       5.265  13.893  13.580
H       3.561  13.917  11.761
H      14.494  13.469  12.107
H      12.799  13.757  13.918
H      12.510  17.947  12.966
H      14.209  17.650  11.158
H      14.426  14.086  22.462
H      12.727  14.146  20.631
H      12.598  18.443  20.914
H      14.299  18.371  22.743
N       7.016  24.129  39.156
C       6.196  25.109  38.595
C       6.198  23.226  39.839
C       4.836  24.823  39.005
C       4.838  23.713  39.738
N       9.099  25.841  38.096
C       7.980  26.462  37.528
C      10.204  26.487  37.529
C       9.747  27.483  36.589
C       8.419  27.461  36.582
N      11.212  24.200  39.255
C      12.004  25.209  38.708
C      12.005  23.303  39.967
C      13.270  25.009  39.188
C      13.272  23.825  39.972
N       9.104  22.487  40.312
C       7.987  21.717  40.661
C      10.209  21.713  40.683
C       9.756  20.457  41.231
C       8.428  20.457  41.209
C       6.569  26.176  37.828
C       6.574  22.103  40.518
C      11.514  22.073  40.551
C      11.508  26.228  37.806
C       3.611  19.573  42.441
C       4.206  20.646  43.140
C       5.164  21.472  42.512
C       5.544  21.241  41.170
C       4.949  20.167  40.470
C       3.991  19.343  41.100
C       3.598  28.933  36.262
C       4.177  29.141  37.533
C       5.136  28.241  38.044
C       5.536  27.112  37.292
C       4.958  26.903  36.019
C       3.996  27.804  35.512
C      14.475  28.665  35.824
C      14.067  27.432  35.265
C      13.109  26.628  35.918
C      12.550  27.046  37.143
C      12.948  28.279  37.704
C      13.907  29.081  37.048
C      14.487  19.301  42.019
C      14.032  19.227  40.682
C      13.073  20.140  40.195
C      12.558  21.143  41.043
C      13.002  21.219  42.381
C      13.962  20.304  42.863
O       2.103  17.728  42.469
C       2.590  18.687  43.112
O      15.897  30.571  35.680
C      15.499  29.521  35.124
O      15.927  29.157  34.003
O      15.993  18.493  43.679
C      15.512  18.323  42.534
O      15.857  17.367  41.802
O       2.219  30.873  36.412
C       2.575  29.896  35.713
O       2.103  29.693  34.569
CO      9.119  24.163  39.203
O       2.252  18.932  44.294
H       3.966  25.423  38.796
H       3.968  23.284  40.210
H      10.371  28.117  35.977
H       7.785  28.076  35.965
H      14.117  25.642  38.968
H      14.120  23.376  40.465
H      10.384  19.647  41.572
H       7.797  19.647  41.533
H       3.922  20.826  44.165
H       5.611  22.289  43.059
H       5.241  19.970  39.448
H       3.541  18.525  40.560
H       3.877  30.002  38.110
H       5.571  28.413  39.018
H       5.265  26.051  35.428
H       3.561  27.638  34.540
H      14.494  27.115  34.325
H      12.799  25.690  35.480
H      12.510  28.610  38.632
H      14.209  30.027  37.471
H      14.426  18.456  40.037
H      12.727  20.071  39.174
H      12.598  21.975  43.036
H      14.299  20.355  43.888
