86
generated by MOF_build
N      49.187  61.358  61.889
C      49.209  62.492  61.099
C      49.218  60.218  61.110
C      49.253  62.034  59.741
C      49.259  60.664  59.747
N      49.370  63.408  63.995
C      49.309  64.234  62.897
C      49.437  64.244  65.086
C      49.423  65.639  64.661
C      49.327  65.632  63.308
N      49.577  61.378  66.119
C      49.544  62.518  66.899
C      49.556  60.244  66.907
C      49.499  62.071  68.261
C      49.506  60.701  68.266
N      49.394  59.327  64.012
C      49.335  58.492  62.921
C      49.465  58.502  65.109
C      49.459  57.104  64.697
C      49.362  57.097  63.345
C      49.234  63.831  61.539
C      49.254  58.882  61.561
C      49.537  58.904  66.467
C      49.513  63.854  66.448
C      49.148  55.772  58.505
C      48.157  56.761  58.569
C      48.188  57.762  59.543
C      49.220  57.815  60.497
C      50.214  56.822  60.434
C      50.177  55.824  59.457
C      49.124  66.872  58.414
C      50.207  66.779  59.299
C      50.246  65.810  60.304
C      49.195  64.889  60.467
C      48.108  64.982  59.578
C      48.076  65.954  58.574
C      49.643  66.941  69.526
C      50.632  66.857  68.536
C      50.590  65.871  67.547
C      49.551  64.922  67.511
C      48.561  65.005  68.506
C      48.608  65.996  69.490
C      49.693  55.849  69.575
C      48.686  56.824  69.566
C      48.630  57.804  68.572
C      49.583  57.846  67.538
C      50.595  56.867  67.548
C      50.645  55.892  68.547
O      50.036  53.805  57.459
C      49.107  54.664  57.430
O      48.743  68.048  71.454
C      49.693  68.032  70.618
O      50.680  68.825  70.590
O      50.716  53.950  70.624
C      49.753  54.770  70.679
O      48.835  54.792  71.550
O      50.070  68.740  57.245
C      49.088  67.943  57.301
O      48.080  67.938  56.535
O      48.147  54.703  56.606
H      49.174  61.363  62.903
H      49.298  62.679  58.876
H      49.309  60.012  58.888
H      49.479  66.499  65.312
H      49.274  66.486  62.648
H      49.595  61.375  65.105
H      49.444  62.723  69.121
H      49.458  60.055  69.130
H      49.522  56.251  65.357
H      49.313  56.238  62.692
H      47.352  56.731  57.840
H      47.400  58.510  59.572
H      51.027  56.839  61.156
H      50.954  55.065  59.418
H      51.029  67.481  59.183
H      51.104  65.757  60.968
H      47.279  64.286  59.680
H      47.230  66.015  57.897
H      51.439  67.584  68.550
H      51.368  65.835  66.787
H      47.751  64.281  68.510
H      47.836  66.047  70.253
H      47.944  56.807  70.359
H      47.843  58.553  68.597
H      51.344  56.872  66.760
H      51.431  55.141  68.541
